Version 4
SHEET 1 984 680
WIRE 160 -32 144 -32
WIRE 528 -32 160 -32
WIRE 528 0 528 -32
WIRE 208 48 80 48
WIRE 320 48 288 48
WIRE -352 112 -384 112
WIRE -64 112 -352 112
WIRE 80 112 80 48
WIRE 80 112 16 112
WIRE 528 112 528 80
WIRE 160 128 160 -32
WIRE 80 144 80 112
WIRE 144 144 80 144
WIRE 320 160 320 48
WIRE 320 160 208 160
WIRE 560 160 320 160
WIRE 656 160 560 160
WIRE 144 176 80 176
WIRE 560 208 560 160
WIRE 192 224 192 192
WIRE 208 224 192 224
WIRE 160 240 160 192
WIRE -256 256 -272 256
WIRE -64 256 -256 256
WIRE 80 256 80 176
WIRE 80 256 16 256
WIRE 80 288 80 256
WIRE -352 304 -352 112
WIRE -256 304 -256 256
WIRE 560 336 560 288
WIRE -352 448 -352 384
WIRE -256 448 -256 384
WIRE 80 448 80 368
WIRE 80 560 80 528
FLAG 160 240 0
FLAG 528 112 0
FLAG 144 -32 VAA
IOPIN 144 -32 Out
FLAG 208 224 VAA
IOPIN 208 224 Out
FLAG -352 448 0
FLAG -256 448 0
FLAG 80 560 0
FLAG 560 336 0
FLAG 656 160 OUT
IOPIN 656 160 Out
FLAG -384 112 IN-
IOPIN -384 112 Out
FLAG -272 256 IN+
IOPIN -272 256 Out
SYMBOL Opamps\\LTC6255 176 160 R0
SYMATTR InstName U1
SYMBOL voltage 528 -16 R0
WINDOW 123 0 0 Left 2
WINDOW 39 0 0 Left 2
SYMATTR InstName V1
SYMATTR Value 4.2
SYMBOL voltage -352 288 R0
WINDOW 3 -298 95 Left 2
WINDOW 123 -118 127 Left 2
WINDOW 39 0 0 Left 2
SYMATTR InstName V2
SYMATTR Value SINE(2.1 0.3 1k 0 0 0 5k)
SYMATTR Value2 AC 0.2 0
SYMBOL res 304 32 R90
WINDOW 0 0 56 VBottom 2
WINDOW 3 32 56 VTop 2
SYMATTR InstName R1
SYMATTR Value 10k
SYMBOL res 32 96 R90
WINDOW 0 0 56 VBottom 2
WINDOW 3 32 56 VTop 2
SYMATTR InstName R2
SYMATTR Value 10k
SYMBOL res 32 240 R90
WINDOW 0 0 56 VBottom 2
WINDOW 3 32 56 VTop 2
SYMATTR InstName R3
SYMATTR Value 10k
SYMBOL res 64 272 R0
SYMATTR InstName R4
SYMATTR Value 10k
SYMBOL voltage -256 288 R0
WINDOW 3 41 95 Left 2
WINDOW 123 39 121 Left 2
WINDOW 39 0 0 Left 2
SYMATTR InstName V3
SYMATTR Value SINE(2 0.3 1k 0 0 180 5k)
SYMATTR Value2 AC 0.2 180
SYMBOL voltage 80 432 R0
WINDOW 123 0 0 Left 2
WINDOW 39 0 0 Left 2
SYMATTR InstName V4
SYMATTR Value 2.1
SYMBOL res 544 192 R0
SYMATTR InstName R5
SYMATTR Value 32
TEXT -280 32 Left 2 !;tran 0 0.05 0 10n
TEXT -272 -8 Left 2 !;ac oct 1k 1m 1meg
TEXT 664 0 Left 2 !.FOUR 1k V(out)
TEXT 664 -24 Left 2 !.OPTIONS plotwinsize=0
TEXT 664 24 Left 2 !.OPTIONS numdgt=7
TEXT -264 -80 Left 2 !;noise V(out) V2 oct 1k 1m 1meg
TEXT -264 72 Left 2 !.dc V3 0 4 10m
